* File: NEURON.pex.netlist.pex
* Created: Mon Dec  8 20:36:50 2025
* Program "Calibre xACT"
* Version "v2024.4_39.16"
* Nominal Temperature: 25C
* Circuit Temperature: 27C
* 
.subckt PM_NEURON_VSS 2 3 5 7 8 9 10 14 15 16 17 18 23 24 25 26 29 32 33 34 35
+ 38 40 41 42 43 44 46 47 48 49 52 54 55 56 57 58 59 60 61 62 63 65 66 67 68 72
+ 73 74 75 76 78 79 81 82 83 86 87 90 91 92 94 96 97 98 100 102 124 126 137 148
+ 157 161 177 211 232 241 256 281 290 310 323 342 374 404 413 422 428 441 450
+ 461 470 490 499 515 547 565 614 617 638 651 662 673 689 698 713 764 788 796
+ 852 876 892 916 948 956 980 1012 1020 1052 1076 1150 1158 1209 1241 1249 1266
+ 1315 1323 1331 1339 1405 1413 1429 1470 1486 1518 1529 1530 1531 1532 1533
+ 1534 1535 1536 1537 1538 1539 1540 1541 1542 1543 1544 1545 1546 1547 1548
+ 1549 1550 1551 1552 1553 1554 1555 1556 1557 1558 1559 1560 1561 1562 1563
+ 1564 1565 1566 1567 1568 1569 1570 1571 1572 1573 1574 1575 1576 1577 1578
+ 1579 1580 1581 1582 1583 1584 1585 1586 1587 1588 1589 1590 1591 1592 1593
+ 1594 1595 1596 1597 1598 1599 1600 1601 1602 1603 1604 1605 1606 1607 1608
+ 1609 1610 1611 1612 1613 1614 1615 1616 1617 1618 1619 1620 1621 1622 1623
+ 1624 1625 1626 1627 1628 1629 1630 1631 1632 1633 1634 1635 1636 1637 1638
+ 1930 2175 2176 2177 2178 2179 2180 2181 2182 2183 2184 2185 2186 2187 2188
+ 2189 2190 2191 2192 2193 2194 2195 2196 2197 2198 2199 2200 2201 2202 2203
+ 2204 2205 2206 2207 2208 2209 2210 2211 2212 2213 2214 2215 2216 2217 2218
+ 2219 2220 2221 2222 2223 2224 2225 2226 2227 2228 2229 2230 2231 2232 2233
+ 2234 2235 2236 2313 2386 2525 2753 2834 2912
c1787 2912 0 0.0034535f
c1788 2834 0 0.00206589f
c1789 2753 0 0.00349231f
c1790 2525 0 0.00782683f
c1791 2386 0 0.00401123f
c1792 2313 0 0.00483971f
c1793 2234 0 0.0158262f
c1794 2231 0 0.00738f
c1795 2225 0 0.00318125f
c1796 2215 0 0.0129543f
c1797 2191 0 0.00415264f
c1798 1638 0 0.0275116f
c1799 1636 0 0.00151262f
c1800 1634 0 0.0276798f
c1801 1633 0 0.0278277f
c1802 1631 0 0.00151262f
c1803 1628 0 0.0276881f
c1804 1627 0 0.0278732f
c1805 1626 0 0.0276602f
c1806 1625 0 0.0277112f
c1807 1623 0 0.0277363f
c1808 1620 0 0.00151262f
c1809 1619 0 0.0275782f
c1810 1617 0 0.0276798f
c1811 1616 0 0.0276602f
c1812 1615 0 0.0276496f
c1813 1614 0 0.0278667f
c1814 1613 0 0.0277112f
c1815 1608 0 0.0275782f
c1816 1607 0 0.0276602f
c1817 1606 0 0.0276602f
c1818 1605 0 0.0276798f
c1819 1604 0 0.0276496f
c1820 1603 0 0.0276416f
c1821 1599 0 0.0276496f
c1822 1598 0 0.0275782f
c1823 1597 0 0.0276881f
c1824 1595 0 0.0276602f
c1825 1594 0 0.0276496f
c1826 1593 0 0.00145642f
c1827 1592 0 0.0277112f
c1828 1591 0 0.0276416f
c1829 1588 0 0.00151262f
c1830 1587 0 0.00151262f
c1831 1584 0 0.0276602f
c1832 1583 0 0.0276798f
c1833 1582 0 0.0278979f
c1834 1581 0 0.0276416f
c1835 1580 0 0.0278212f
c1836 1579 0 0.027874f
c1837 1577 0 0.00151262f
c1838 1576 0 0.0277112f
c1839 1573 0 0.0276602f
c1840 1572 0 0.0278667f
c1841 1571 0 0.00148518f
c1842 1568 0 0.0276602f
c1843 1567 0 0.00150214f
c1844 1565 0 0.0276602f
c1845 1564 0 0.0277036f
c1846 1562 0 0.0278069f
c1847 1559 0 0.0276661f
c1848 1558 0 0.0274979f
c1849 1557 0 0.02769f
c1850 1556 0 0.0277353f
c1851 1555 0 0.0276798f
c1852 1553 0 0.0276956f
c1853 1550 0 0.0275795f
c1854 1549 0 0.00151262f
c1855 1547 0 0.0276067f
c1856 1546 0 0.0276798f
c1857 1544 0 0.00146525f
c1858 1543 0 0.0276956f
c1859 1542 0 0.0278669f
c1860 1541 0 0.0275625f
c1861 1538 0 0.0276496f
c1862 1537 0 0.00145642f
c1863 1535 0 0.0277096f
c1864 1534 0 0.00147151f
c1865 1532 0 0.0276756f
c1866 1531 0 0.027684f
c1867 1530 0 0.00147534f
c1868 1518 0 0.0275914f
c1869 1486 0 0.0275995f
c1870 1470 0 0.0275856f
c1871 1429 0 0.0275385f
c1872 1413 0 0.0275841f
c1873 1405 0 0.0277193f
c1874 1339 0 0.0275385f
c1875 1331 0 0.0275385f
c1876 1323 0 0.0275385f
c1877 1315 0 0.027604f
c1878 1266 0 0.0275385f
c1879 1249 0 0.0276038f
c1880 1241 0 0.0275385f
c1881 1209 0 0.0277361f
c1882 1158 0 0.0275385f
c1883 1150 0 0.0275841f
c1884 1076 0 0.0275385f
c1885 1052 0 0.0278658f
c1886 1020 0 0.0275385f
c1887 1012 0 0.0275385f
c1888 980 0 0.0275385f
c1889 956 0 0.0275655f
c1890 948 0 0.0276027f
c1891 916 0 0.0275671f
c1892 892 0 0.0275655f
c1893 876 0 0.0276114f
c1894 852 0 0.0275663f
c1895 796 0 0.0277114f
c1896 788 0 0.0276111f
c1897 764 0 0.0275385f
c1898 713 0 0.0553282f
c1899 698 0 0.00210814f
c1900 689 0 0.00199196f
c1901 673 0 0.0453927f
c1902 662 0 5.85533e-19
c1903 651 0 0.119764f
c1904 638 0 0.00189909f
c1905 617 0 4.80171e-19
c1906 614 0 0.0906961f
c1907 565 0 6.13176e-19
c1908 547 0 0.00229019f
c1909 515 0 0.00203348f
c1910 499 0 0.0855919f
c1911 490 0 0.00180547f
c1912 470 0 0.00199429f
c1913 461 0 0.00174262f
c1914 450 0 0.00192678f
c1915 441 0 0.00190412f
c1916 428 0 0.0115272f
c1917 422 0 0.084026f
c1918 413 0 0.00191701f
c1919 404 0 0.00175839f
c1920 374 0 0.00224713f
c1921 342 0 0.00198605f
c1922 323 0 9.80853e-19
c1923 310 0 0.00208189f
c1924 290 0 0.00166267f
c1925 281 0 0.0021276f
c1926 256 0 0.110189f
c1927 241 0 0.00210368f
c1928 232 0 0.00199284f
c1929 211 0 0.00197026f
c1930 177 0 0.00181538f
c1931 161 0 0.0951534f
c1932 157 0 0.00199651f
c1933 148 0 0.00172981f
c1934 137 0 0.00200524f
c1935 126 0 0.0978357f
c1936 124 0 0.00238672f
c1937 102 0 4.72408e-19
c1938 100 0 0.00164153f
c1939 98 0 9.27575e-19
c1940 97 0 0.00237925f
c1941 96 0 0.0019991f
c1942 94 0 6.86088e-19
c1943 92 0 0.00197862f
c1944 91 0 0.0020055f
c1945 90 0 0.00218612f
c1946 87 0 0.0950896f
c1947 86 0 0.00141737f
c1948 83 0 0.100074f
c1949 82 0 0.00198605f
c1950 81 0 0.00210892f
c1951 79 0 0.00225776f
c1952 78 0 0.00187081f
c1953 76 0 0.00164603f
c1954 75 0 0.00184554f
c1955 74 0 0.00186936f
c1956 73 0 0.0589618f
c1957 72 0 0.00195291f
c1958 68 0 0.00210989f
c1959 67 0 0.00200848f
c1960 66 0 0.0872246f
c1961 65 0 0.00165969f
c1962 63 0 0.0921329f
c1963 62 0 0.00197864f
c1964 61 0 0.00175324f
c1965 60 0 0.0019526f
c1966 59 0 0.00199928f
c1967 58 0 0.0930366f
c1968 57 0 0.00175839f
c1969 56 0 0.00185037f
c1970 55 0 0.001664f
c1971 54 0 0.00141737f
c1972 52 0 5.57401e-19
c1973 49 0 0.00253425f
c1974 48 0 0.00190236f
c1975 47 0 0.00224611f
c1976 46 0 0.00172592f
c1977 44 0 7.50944e-19
c1978 43 0 0.00174404f
c1979 42 0 0.00159612f
c1980 41 0 0.00241529f
c1981 40 0 0.00221941f
c1982 38 0 0.00186367f
c1983 35 0 0.0889056f
c1984 34 0 0.00232925f
c1985 33 0 0.00184297f
c1986 32 0 0.0021416f
c1987 29 0 0.00158088f
c1988 26 0 0.00205728f
c1989 25 0 0.00185455f
c1990 24 0 0.0998708f
c1991 23 0 0.00217519f
c1992 18 0 6.76181e-19
c1993 17 0 0.00165431f
c1994 16 0 0.00195597f
c1995 15 0 0.00202376f
c1996 14 0 0.0012628f
c1997 10 0 0.00182742f
c1998 9 0 0.00148957f
c1999 8 0 0.00199081f
c2000 7 0 0.00231312f
c2001 5 0 0.00191961f
c2002 3 0 0.00219063f
c2003 2 0 0.00240198f
r2004 3052 3053 4.19742
r2005 3048 3052 4.19742
r2006 3048 3049 10.4935
r2007 3045 3046 1.86552
r2008 3044 3049 14.4578
r2009 3044 3046 14.9241
r2010 3041 3042 4.66379
r2011 3040 3045 8.62802
r2012 3040 3042 6.29612
r2013 3037 3038 4.19742
r2014 3033 3037 4.19742
r2015 3033 3034 10.4935
r2016 3030 3031 1.86552
r2017 3029 3034 27.2832
r2018 3029 3031 2.09871
r2019 3026 3027 4.66379
r2020 3025 3030 8.62802
r2021 3025 3027 6.29612
r2022 3022 3023 11.8927
r2023 3021 3022 0.699569
r2024 3017 3018 4.66379
r2025 3016 3021 8.62802
r2026 3016 3018 5.13017
r2027 3013 3014 4.19742
r2028 3010 3013 4.19742
r2029 3010 3011 10.4935
r2030 3007 3008 1.86552
r2031 3006 3011 14.4578
r2032 3006 3008 14.9241
r2033 3003 3004 4.66379
r2034 3002 3007 8.62802
r2035 3002 3004 6.29612
r2036 2997 2998 0.699569
r2037 2996 3000 8.62802
r2038 2996 2998 3.26466
r2039 2993 2994 4.66379
r2040 2992 2997 8.62802
r2041 2992 2994 5.13017
r2042 2989 2990 10.7267
r2043 2988 2989 2.09871
r2044 2987 2988 4.19742
r2045 2983 2987 4.19742
r2046 2983 2984 28.6823
r2047 2980 2981 5.13017
r2048 2979 2984 9.0944
r2049 2979 2981 3.49785
r2050 2974 2980 3.96423
r2051 2970 2971 11.8927
r2052 2969 2970 0.699569
r2053 2965 2966 4.66379
r2054 2964 2969 8.62802
r2055 2964 2966 5.13017
r2056 2961 2962 4.19742
r2057 2958 2961 4.19742
r2058 2958 2959 10.4935
r2059 2955 2956 1.86552
r2060 2954 2959 2.09871
r2061 2954 2956 27.2832
r2062 2950 2951 4.66379
r2063 2949 2950 4.19742
r2064 2948 2955 8.62802
r2065 2948 2951 6.29612
r2066 2944 2945 14.691
r2067 2941 2942 6.7625
r2068 2940 2941 14.9241
r2069 2939 2940 0.932759
r2070 2938 2939 1.16595
r2071 2937 2938 4.19742
r2072 2936 2937 1.86552
r2073 2935 2945 10.4935
r2074 2935 2942 31.0142
r2075 2932 2933 2.09871
r2076 2931 2932 4.19742
r2077 2930 2931 1.86552
r2078 2929 2930 15.6237
r2079 2928 2929 4.4306
r2080 2927 2928 9.56078
r2081 2926 2927 2.09871
r2082 2925 2926 4.19742
r2083 2917 2925 4.19742
r2084 2912 2913 3.26466
r2085 2910 2913 9.32759
r2086 2907 2908 4.19742
r2087 2902 2903 2.09871
r2088 2901 2902 4.19742
r2089 2900 2905 8.62802
r2090 2900 2903 2.09871
r2091 2898 2901 4.19742
r2092 2895 2896 12.5922
r2093 2894 2895 5.13017
r2094 2893 2898 25.1845
r2095 2893 2896 3.49785
r2096 2890 2891 8.16164
r2097 2889 2894 3.96423
r2098 2889 2891 2.79828
r2099 2884 2885 2.09871
r2100 2883 2884 4.19742
r2101 2882 2887 8.62802
r2102 2882 2885 2.09871
r2103 2880 2883 4.19742
r2104 2877 2878 12.5922
r2105 2876 2877 5.13017
r2106 2875 2880 25.1845
r2107 2875 2878 3.49785
r2108 2872 2873 8.16164
r2109 2871 2876 3.96423
r2110 2871 2873 2.79828
r2111 2866 2867 0.699569
r2112 2865 2869 8.62802
r2113 2865 2867 3.26466
r2114 2862 2863 4.66379
r2115 2861 2866 8.62802
r2116 2861 2863 5.13017
r2117 2858 2859 10.7267
r2118 2857 2858 2.09871
r2119 2856 2857 4.19742
r2120 2852 2856 4.19742
r2121 2852 2853 28.6823
r2122 2849 2850 5.13017
r2123 2848 2853 9.0944
r2124 2848 2850 3.49785
r2125 2845 2846 8.16164
r2126 2844 2849 3.96423
r2127 2844 2846 2.79828
r2128 2841 2842 4.19742
r2129 2838 2841 4.19742
r2130 2838 2839 10.4935
r2131 2835 2836 1.86552
r2132 2834 2839 2.09871
r2133 2834 2836 27.2832
r2134 2830 2831 4.66379
r2135 2829 2835 8.62802
r2136 2829 2831 6.29612
r2137 2826 2827 4.19742
r2138 2823 2826 4.19742
r2139 2823 2824 10.4935
r2140 2820 2821 1.86552
r2141 2819 2824 14.4578
r2142 2819 2821 14.9241
r2143 2816 2817 4.66379
r2144 2815 2820 8.62802
r2145 2815 2817 6.29612
r2146 2810 2811 0.699569
r2147 2809 2813 8.62802
r2148 2809 2811 3.26466
r2149 2806 2807 4.66379
r2150 2805 2810 8.62802
r2151 2805 2807 5.13017
r2152 2802 2803 4.19742
r2153 2799 2802 4.19742
r2154 2799 2800 10.4935
r2155 2796 2797 1.86552
r2156 2795 2800 2.09871
r2157 2795 2797 27.2832
r2158 2791 2792 4.66379
r2159 2790 2796 8.62802
r2160 2790 2792 6.29612
r2161 2787 2788 11.8927
r2162 2786 2787 0.699569
r2163 2783 2784 4.66379
r2164 2782 2786 8.62802
r2165 2782 2784 5.13017
r2166 2777 2778 2.09871
r2167 2776 2777 4.19742
r2168 2775 2780 8.62802
r2169 2775 2778 2.09871
r2170 2773 2776 4.19742
r2171 2770 2771 12.5922
r2172 2769 2770 5.13017
r2173 2768 2773 25.1845
r2174 2768 2771 3.49785
r2175 2765 2766 8.16164
r2176 2764 2769 3.96423
r2177 2764 2766 2.79828
r2178 2761 2762 4.19742
r2179 2757 2761 4.19742
r2180 2757 2758 10.4935
r2181 2754 2755 1.86552
r2182 2753 2758 27.2832
r2183 2753 2755 2.09871
r2184 2750 2751 4.66379
r2185 2749 2754 8.62802
r2186 2749 2751 6.29612
r2187 2746 2747 4.19742
r2188 2743 2746 4.19742
r2189 2743 2744 10.4935
r2190 2740 2741 1.86552
r2191 2739 2744 2.09871
r2192 2739 2741 27.2832
r2193 2735 2736 4.66379
r2194 2734 2740 8.62802
r2195 2734 2736 6.29612
r2196 2731 2732 11.6595
r2197 2730 2731 0.23319
r2198 2729 2730 0.699569
r2199 2726 2727 8.86121
r2200 2725 2729 8.39483
r2201 2725 2727 2.09871
r2202 2722 2723 4.19742
r2203 2718 2722 4.19742
r2204 2718 2719 10.4935
r2205 2715 2716 1.86552
r2206 2714 2715 7.92845
r2207 2713 2719 27.2832
r2208 2713 2716 2.09871
r2209 2710 2714 0.699569
r2210 2710 2711 10.9599
r2211 2707 2708 11.6595
r2212 2706 2707 0.23319
r2213 2705 2706 0.699569
r2214 2701 2702 9.56078
r2215 2700 2705 8.39483
r2216 2700 2702 1.39914
r2217 2697 2698 11.8927
r2218 2696 2697 0.699569
r2219 2693 2694 4.66379
r2220 2692 2696 8.62802
r2221 2692 2694 5.13017
r2222 2689 2690 4.19742
r2223 2685 2689 4.19742
r2224 2685 2686 10.4935
r2225 2682 2683 1.86552
r2226 2681 2686 27.2832
r2227 2681 2683 2.09871
r2228 2676 2682 8.62802
r2229 2672 2673 4.19742
r2230 2668 2672 4.19742
r2231 2668 2669 10.4935
r2232 2665 2666 1.86552
r2233 2664 2669 14.4578
r2234 2664 2666 14.9241
r2235 2661 2662 4.66379
r2236 2660 2665 8.62802
r2237 2660 2662 6.29612
r2238 2657 2658 4.19742
r2239 2653 2657 4.19742
r2240 2653 2654 10.4935
r2241 2650 2651 1.86552
r2242 2649 2654 27.2832
r2243 2649 2651 2.09871
r2244 2646 2647 4.66379
r2245 2645 2650 8.62802
r2246 2645 2647 6.29612
r2247 2642 2643 11.8927
r2248 2641 2642 0.699569
r2249 2637 2638 4.66379
r2250 2636 2641 8.62802
r2251 2636 2638 5.13017
r2252 2633 2634 4.19742
r2253 2630 2633 4.19742
r2254 2630 2631 10.4935
r2255 2627 2628 1.86552
r2256 2626 2631 14.4578
r2257 2626 2628 14.9241
r2258 2623 2624 4.66379
r2259 2622 2627 8.62802
r2260 2622 2624 6.29612
r2261 2617 2618 0.699569
r2262 2616 2620 8.62802
r2263 2616 2618 3.26466
r2264 2613 2614 4.66379
r2265 2612 2617 8.62802
r2266 2612 2614 5.13017
r2267 2609 2610 4.19742
r2268 2606 2609 4.19742
r2269 2606 2607 10.4935
r2270 2603 2604 1.86552
r2271 2602 2607 2.09871
r2272 2602 2604 27.2832
r2273 2598 2599 4.66379
r2274 2597 2603 8.62802
r2275 2597 2599 6.29612
r2276 2594 2595 4.19742
r2277 2591 2594 4.19742
r2278 2591 2592 10.4935
r2279 2588 2589 1.86552
r2280 2587 2592 14.4578
r2281 2587 2589 14.9241
r2282 2584 2585 4.66379
r2283 2583 2588 8.62802
r2284 2583 2585 6.29612
r2285 2578 2579 0.699569
r2286 2577 2581 8.62802
r2287 2577 2579 3.26466
r2288 2574 2575 4.66379
r2289 2573 2578 8.62802
r2290 2573 2575 5.13017
r2291 2570 2571 4.19742
r2292 2567 2570 4.19742
r2293 2567 2568 10.4935
r2294 2564 2565 1.86552
r2295 2563 2568 2.09871
r2296 2563 2565 27.2832
r2297 2559 2560 4.66379
r2298 2558 2564 8.62802
r2299 2558 2560 6.29612
r2300 2555 2556 11.8927
r2301 2554 2555 0.699569
r2302 2551 2552 4.66379
r2303 2550 2554 8.62802
r2304 2550 2552 5.13017
r2305 2545 2546 0.699569
r2306 2544 2548 8.62802
r2307 2544 2546 3.26466
r2308 2541 2542 4.66379
r2309 2540 2541 5.36336
r2310 2539 2545 8.62802
r2311 2539 2542 5.13017
r2312 2535 2536 14.691
r2313 2532 2536 10.4935
r2314 2529 2530 10.7267
r2315 2528 2529 2.09871
r2316 2527 2528 4.19742
r2317 2525 2527 4.19742
r2318 2522 2523 12.5922
r2319 2521 2522 5.13017
r2320 2520 2525 12.5922
r2321 2520 2523 16.0901
r2322 2516 2517 8.16164
r2323 2515 2521 3.96423
r2324 2515 2517 2.79828
r2325 2512 2513 4.19742
r2326 2509 2512 4.19742
r2327 2509 2510 10.4935
r2328 2506 2507 1.86552
r2329 2505 2510 14.4578
r2330 2505 2507 14.9241
r2331 2502 2503 4.66379
r2332 2501 2506 8.62802
r2333 2501 2503 6.29612
r2334 2498 2499 4.19742
r2335 2494 2498 4.19742
r2336 2494 2495 10.4935
r2337 2491 2492 1.86552
r2338 2490 2495 27.2832
r2339 2490 2492 2.09871
r2340 2487 2488 4.66379
r2341 2486 2491 8.62802
r2342 2486 2488 6.29612
r2343 2483 2484 11.6595
r2344 2482 2483 0.23319
r2345 2481 2482 0.699569
r2346 2477 2478 8.86121
r2347 2476 2481 8.39483
r2348 2476 2478 2.09871
r2349 2473 2474 4.19742
r2350 2470 2473 4.19742
r2351 2470 2471 10.4935
r2352 2467 2468 1.86552
r2353 2466 2471 14.4578
r2354 2466 2468 14.9241
r2355 2463 2464 4.66379
r2356 2462 2467 8.62802
r2357 2462 2464 6.29612
r2358 2457 2458 0.23319
r2359 2456 2457 0.699569
r2360 2455 2460 8.39483
r2361 2455 2458 3.26466
r2362 2450 2456 8.39483
r2363 2446 2447 4.19742
r2364 2442 2446 4.19742
r2365 2442 2443 10.4935
r2366 2439 2440 1.86552
r2367 2438 2443 14.4578
r2368 2438 2440 14.9241
r2369 2435 2436 4.66379
r2370 2434 2439 8.62802
r2371 2434 2436 6.29612
r2372 2431 2432 4.19742
r2373 2427 2431 4.19742
r2374 2427 2428 10.4935
r2375 2424 2425 1.86552
r2376 2423 2428 27.2832
r2377 2423 2425 2.09871
r2378 2420 2421 4.66379
r2379 2419 2424 8.62802
r2380 2419 2421 6.29612
r2381 2416 2417 11.8927
r2382 2415 2416 0.699569
r2383 2411 2412 4.66379
r2384 2410 2415 8.62802
r2385 2410 2412 5.13017
r2386 2407 2408 4.19742
r2387 2404 2407 4.19742
r2388 2404 2405 10.4935
r2389 2401 2402 1.86552
r2390 2400 2405 14.4578
r2391 2400 2402 14.9241
r2392 2397 2398 4.66379
r2393 2396 2401 8.62802
r2394 2396 2398 6.29612
r2395 2391 2392 0.699569
r2396 2390 2394 8.62802
r2397 2390 2392 3.26466
r2398 2387 2388 4.66379
r2399 2386 2391 8.62802
r2400 2386 2388 5.13017
r2401 2383 2384 11.8927
r2402 2382 2383 0.699569
r2403 2378 2379 4.66379
r2404 2377 2378 5.36336
r2405 2376 2382 8.62802
r2406 2376 2379 5.13017
r2407 2372 2373 14.691
r2408 2370 2373 10.4935
r2409 2365 2366 2.09871
r2410 2364 2365 4.19742
r2411 2363 2368 8.62802
r2412 2363 2366 2.09871
r2413 2361 2364 4.19742
r2414 2358 2359 12.5922
r2415 2357 2358 5.82974
r2416 2356 2361 25.1845
r2417 2356 2359 3.49785
r2418 2353 2354 8.16164
r2419 2352 2357 3.26466
r2420 2352 2354 2.79828
r2421 2349 2350 4.19742
r2422 2345 2349 4.19742
r2423 2345 2346 10.4935
r2424 2342 2343 1.86552
r2425 2341 2346 27.2832
r2426 2341 2343 2.09871
r2427 2338 2339 4.66379
r2428 2337 2342 8.62802
r2429 2337 2339 6.29612
r2430 2334 2335 4.19742
r2431 2331 2334 4.19742
r2432 2331 2332 10.4935
r2433 2328 2329 1.86552
r2434 2327 2332 2.09871
r2435 2327 2329 27.2832
r2436 2323 2324 4.66379
r2437 2322 2328 8.62802
r2438 2322 2324 6.29612
r2439 2319 2320 11.6595
r2440 2318 2319 0.23319
r2441 2317 2318 0.699569
r2442 2314 2315 8.86121
r2443 2313 2317 8.39483
r2444 2313 2315 2.09871
r2445 2310 2311 4.19742
r2446 2306 2310 4.19742
r2447 2306 2307 10.4935
r2448 2303 2304 1.86552
r2449 2302 2307 27.2832
r2450 2302 2304 2.09871
r2451 2299 2300 4.66379
r2452 2298 2303 8.62802
r2453 2298 2300 6.29612
r2454 2295 2296 11.6595
r2455 2294 2295 0.23319
r2456 2293 2294 0.699569
r2457 2289 2290 8.86121
r2458 2288 2293 8.39483
r2459 2288 2290 2.09871
r2460 2285 2286 10.7267
r2461 2284 2285 2.09871
r2462 2283 2284 4.19742
r2463 2281 2283 4.19742
r2464 2278 2279 12.5922
r2465 2277 2278 5.13017
r2466 2276 2281 12.5922
r2467 2276 2279 16.0901
r2468 2272 2273 8.16164
r2469 2271 2272 4.19742
r2470 2270 2277 3.96423
r2471 2270 2273 2.79828
r2472 2264 2265 9.56078
r2473 2263 2264 6.7625
r2474 2262 2263 14.9241
r2475 2261 2262 0.932759
r2476 2260 2261 1.16595
r2477 2259 2260 4.19742
r2478 2258 2259 1.86552
r2479 2257 2267 25.1845
r2480 2257 2265 21.4535
r2481 2254 2255 2.09871
r2482 2253 2254 4.19742
r2483 2252 2253 1.86552
r2484 2251 2252 2.3319
r2485 2250 2251 13.2918
r2486 2249 2250 4.4306
r2487 2248 2249 9.56078
r2488 2247 2248 2.09871
r2489 2246 2247 4.19742
r2490 2238 2246 4.19742
r2491 2236 2910 5.82974
r2492 2236 2908 2.56509
r2493 2235 2907 2.56509
r2494 2235 2905 1.39914
r2495 2234 2673 0.932759
r2496 2233 2661 4.89698
r2497 2233 2658 0.932759
r2498 2232 2890 4.19742
r2499 2232 2887 1.39914
r2500 2231 2447 0.932759
r2501 2230 2646 3.03147
r2502 2230 2643 2.56509
r2503 2229 2872 3.03147
r2504 2229 2869 2.56509
r2505 2228 2435 4.89698
r2506 2228 2432 0.932759
r2507 2227 2637 6.06293
r2508 2227 2634 0.932759
r2509 2226 2862 5.36336
r2510 2226 2859 1.39914
r2511 2225 3053 0.932759
r2512 2224 2420 3.03147
r2513 2224 2417 2.56509
r2514 2223 2623 3.03147
r2515 2223 2620 2.56509
r2516 2222 3041 4.89698
r2517 2222 3038 0.932759
r2518 2221 2411 6.06293
r2519 2221 2408 0.932759
r2520 2220 2845 4.89698
r2521 2220 2842 0.932759
r2522 2219 2613 6.06293
r2523 2219 2610 0.932759
r2524 2218 3026 3.03147
r2525 2218 3023 2.56509
r2526 2217 2397 3.03147
r2527 2217 2394 2.56509
r2528 2216 2830 4.89698
r2529 2216 2827 0.932759
r2530 2215 2598 4.89698
r2531 2215 2595 0.932759
r2532 2214 2387 4.19742
r2533 2214 2384 2.56509
r2534 2213 3017 6.06293
r2535 2213 3014 0.932759
r2536 2212 2377 0.699569
r2537 2212 2372 9.32759
r2538 2211 2816 3.03147
r2539 2211 2813 2.56509
r2540 2210 2584 3.03147
r2541 2210 2581 2.56509
r2542 2209 3003 3.03147
r2543 2209 3000 2.56509
r2544 2208 2806 6.06293
r2545 2208 2803 0.932759
r2546 2207 2574 6.06293
r2547 2207 2571 0.932759
r2548 2206 2993 5.36336
r2549 2206 2990 1.39914
r2550 2205 2370 40.3418
r2551 2205 2368 1.39914
r2552 2204 2791 3.03147
r2553 2204 2788 2.56509
r2554 2203 2559 3.03147
r2555 2203 2556 2.56509
r2556 2202 2551 4.19742
r2557 2202 2548 2.56509
r2558 2201 2783 5.36336
r2559 2201 2780 1.39914
r2560 2200 2353 4.89698
r2561 2200 2350 0.932759
r2562 2199 2540 0.699569
r2563 2199 2535 9.32759
r2564 2198 2338 4.89698
r2565 2198 2335 0.932759
r2566 2197 2765 4.89698
r2567 2197 2762 0.932759
r2568 2196 2532 40.3418
r2569 2196 2530 1.39914
r2570 2195 2323 4.19742
r2571 2195 2320 1.63233
r2572 2194 2750 4.89698
r2573 2194 2747 0.932759
r2574 2193 2314 4.89698
r2575 2193 2311 0.932759
r2576 2192 2516 4.89698
r2577 2192 2513 0.932759
r2578 2191 2971 2.56509
r2579 2190 2735 4.19742
r2580 2190 2732 1.63233
r2581 2189 2965 6.06293
r2582 2189 2962 0.932759
r2583 2188 2299 4.19742
r2584 2188 2296 1.63233
r2585 2187 2726 4.89698
r2586 2187 2723 0.932759
r2587 2186 2502 4.89698
r2588 2186 2499 0.932759
r2589 2185 2289 4.19742
r2590 2185 2286 1.39914
r2591 2184 2949 0.699569
r2592 2184 2944 9.32759
r2593 2183 2711 4.19742
r2594 2183 2708 1.63233
r2595 2182 2487 4.19742
r2596 2182 2484 1.63233
r2597 2181 2701 3.03147
r2598 2181 2698 2.56509
r2599 2180 2271 0.699569
r2600 2180 2267 9.32759
r2601 2179 2477 4.89698
r2602 2179 2474 0.932759
r2603 2178 2936 3.73104
r2604 2178 2933 0.466379
r2605 2177 2693 6.06293
r2606 2177 2690 0.932759
r2607 2176 2463 4.19742
r2608 2176 2460 1.63233
r2609 2175 2258 3.73104
r2610 2175 2255 0.466379
r2611 1526 1638 0.277778
r2612 1526 1527 15.9139
r2613 1524 2910 96.0901
r2614 1524 1527 13.2616
r2615 1518 1637 0.277778
r2616 1518 1519 15.9139
r2617 1516 2668 96.0901
r2618 1516 1519 13.2616
r2619 1510 1636 0.314815
r2620 1510 1635 0.314815
r2621 1510 1511 15.9139
r2622 1508 2898 96.0901
r2623 1508 1511 13.2616
r2624 1502 1634 0.277778
r2625 1502 1503 15.9139
r2626 1500 2660 96.0901
r2627 1500 1503 13.2616
r2628 1494 1633 0.277778
r2629 1494 1495 15.9139
r2630 1492 2889 96.0901
r2631 1492 1495 13.2616
r2632 1486 1632 0.277778
r2633 1486 1487 15.9139
r2634 1484 2653 96.0901
r2635 1484 1487 13.2616
r2636 1478 1631 0.314815
r2637 1478 1630 0.314815
r2638 1478 1479 15.9139
r2639 1476 2880 96.0901
r2640 1476 1479 13.2616
r2641 1470 1629 0.277778
r2642 1470 1471 15.9139
r2643 1468 2442 96.0901
r2644 1468 1471 13.2616
r2645 1462 1628 0.277778
r2646 1462 1463 15.9139
r2647 1460 2645 96.0901
r2648 1460 1463 13.2616
r2649 1454 1627 0.277778
r2650 1454 1455 15.9139
r2651 1452 2871 96.0901
r2652 1452 1455 13.2616
r2653 1446 1626 0.277778
r2654 1446 1447 15.9139
r2655 1444 2434 96.0901
r2656 1444 1447 13.2616
r2657 1438 1625 0.277778
r2658 1438 1439 15.9139
r2659 1436 2636 80.7481
r2660 1436 1439 13.5563
r2661 1429 1624 0.277778
r2662 1429 1430 15.9139
r2663 1427 2427 96.0901
r2664 1427 1430 13.2616
r2665 1421 1623 0.277778
r2666 1421 1422 15.9139
r2667 1419 2861 96.0901
r2668 1419 1422 13.2616
r2669 1413 1622 0.277778
r2670 1413 1414 15.9139
r2671 1411 2630 96.0901
r2672 1411 1414 13.2616
r2673 1405 1621 0.277778
r2674 1405 1406 15.9139
r2675 1403 3048 96.0901
r2676 1403 1406 13.2616
r2677 1397 1620 0.314815
r2678 1397 1618 0.314815
r2679 1397 1398 15.9139
r2680 1395 2852 96.0901
r2681 1395 1398 13.2616
r2682 1389 1619 0.277778
r2683 1389 1390 15.9139
r2684 1387 2419 96.0901
r2685 1387 1390 13.2616
r2686 1381 1617 0.277778
r2687 1381 1382 15.9139
r2688 1379 2622 96.0901
r2689 1379 1382 13.2616
r2690 1373 1616 0.277778
r2691 1373 1374 15.9139
r2692 1371 3040 96.0901
r2693 1371 1374 13.2616
r2694 1365 1615 0.277778
r2695 1365 1366 15.9139
r2696 1363 2410 80.7481
r2697 1363 1366 13.5563
r2698 1356 1614 0.277778
r2699 1356 1357 15.9139
r2700 1354 2844 96.0901
r2701 1354 1357 13.2616
r2702 1348 1613 0.277778
r2703 1348 1349 15.9139
r2704 1346 2612 80.7481
r2705 1346 1349 13.5563
r2706 1339 1612 0.277778
r2707 1339 1340 15.9139
r2708 1337 3033 96.0901
r2709 1337 1340 13.2616
r2710 1331 1611 0.277778
r2711 1331 1332 15.9139
r2712 1329 2404 96.0901
r2713 1329 1332 13.2616
r2714 1323 1610 0.277778
r2715 1323 1324 15.9139
r2716 1321 2838 96.0901
r2717 1321 1324 13.2616
r2718 1315 1609 0.277778
r2719 1315 1316 15.9139
r2720 1313 2606 96.0901
r2721 1313 1316 13.2616
r2722 1307 1608 0.277778
r2723 1307 1308 15.9139
r2724 1305 3025 96.0901
r2725 1305 1308 13.2616
r2726 1299 1607 0.277778
r2727 1299 1300 15.9139
r2728 1297 2396 96.0901
r2729 1297 1300 13.2616
r2730 1291 1606 0.277778
r2731 1291 1292 15.9139
r2732 1289 2829 96.0901
r2733 1289 1292 13.2616
r2734 1283 1605 0.277778
r2735 1283 1284 15.9139
r2736 1281 2597 96.0901
r2737 1281 1284 13.2616
r2738 1275 1604 0.277778
r2739 1275 1276 15.9139
r2740 1273 3016 80.7481
r2741 1273 1276 13.5563
r2742 1266 1602 0.277778
r2743 1266 1267 15.9139
r2744 1264 2823 96.0901
r2745 1264 1267 13.2616
r2746 1258 1603 0.277778
r2747 1258 1259 15.9139
r2748 1256 2386 80.7481
r2749 1256 1259 13.5563
r2750 1249 1601 0.277778
r2751 1249 1250 15.9139
r2752 1247 2591 96.0901
r2753 1247 1250 13.2616
r2754 1241 1600 0.277778
r2755 1241 1242 15.9139
r2756 1239 3010 96.0901
r2757 1239 1242 13.2616
r2758 1233 1599 0.277778
r2759 1233 1234 15.9139
r2760 1231 2376 96.0901
r2761 1231 1234 13.2616
r2762 1225 1598 0.277778
r2763 1225 1226 15.9139
r2764 1223 2815 96.0901
r2765 1223 1226 13.2616
r2766 1217 1597 0.277778
r2767 1217 1218 15.9139
r2768 1215 2583 96.0901
r2769 1215 1218 13.2616
r2770 1209 1596 0.277778
r2771 1209 1210 15.9139
r2772 1207 2372 96.0901
r2773 1207 1210 13.2616
r2774 1201 1595 0.277778
r2775 1201 1202 15.9139
r2776 1199 3002 96.0901
r2777 1199 1202 13.2616
r2778 1193 1594 0.277778
r2779 1193 1194 15.9139
r2780 1191 2805 80.7481
r2781 1191 1194 13.5563
r2782 1184 1593 0.277778
r2783 1184 1185 15.9139
r2784 1182 2370 96.0901
r2785 1182 1185 13.2616
r2786 1176 1592 0.277778
r2787 1176 1177 15.9139
r2788 1174 2573 80.7481
r2789 1174 1177 13.5563
r2790 1167 1591 0.277778
r2791 1167 1168 15.9139
r2792 1165 2992 80.7481
r2793 1165 1168 13.5563
r2794 1158 1590 0.277778
r2795 1158 1159 15.9139
r2796 1156 2799 96.0901
r2797 1156 1159 13.2616
r2798 1150 1589 0.277778
r2799 1150 1151 15.9139
r2800 1148 2567 96.0901
r2801 1148 1151 13.2616
r2802 1142 1588 0.314815
r2803 1142 1586 0.314815
r2804 1142 1143 15.9139
r2805 1140 2983 96.0901
r2806 1140 1143 13.2616
r2807 1134 1587 0.314815
r2808 1134 1585 0.314815
r2809 1134 1135 15.9139
r2810 1132 2361 96.0901
r2811 1132 1135 13.2616
r2812 1126 1584 0.277778
r2813 1126 1127 15.9139
r2814 1124 2790 96.0901
r2815 1124 1127 13.2616
r2816 1118 1583 0.277778
r2817 1118 1119 15.9139
r2818 1116 2558 96.0901
r2819 1116 1119 13.2616
r2820 1110 1582 0.277778
r2821 1110 1111 15.9139
r2822 1108 2974 96.0901
r2823 1108 1111 13.2616
r2824 1102 1581 0.277778
r2825 1102 1103 15.9139
r2826 1100 2782 80.7481
r2827 1100 1103 13.5563
r2828 1093 1580 0.277778
r2829 1093 1094 15.9139
r2830 1091 2352 96.0901
r2831 1091 1094 13.2616
r2832 1085 1579 0.277778
r2833 1085 1086 15.9139
r2834 1083 2550 80.7481
r2835 1083 1086 13.5563
r2836 1076 1578 0.277778
r2837 1076 1077 15.9139
r2838 1074 2345 96.0901
r2839 1074 1077 13.2616
r2840 1068 1577 0.314815
r2841 1068 1575 0.314815
r2842 1068 1069 15.9139
r2843 1066 2773 96.0901
r2844 1066 1069 13.2616
r2845 1060 1576 0.277778
r2846 1060 1061 15.9139
r2847 1058 2539 96.0901
r2848 1058 1061 13.2616
r2849 1052 1574 0.277778
r2850 1052 1053 15.9139
r2851 1050 2535 96.0901
r2852 1050 1053 13.2616
r2853 1044 1573 0.277778
r2854 1044 1045 15.9139
r2855 1042 2337 96.0901
r2856 1042 1045 13.2616
r2857 1036 1572 0.277778
r2858 1036 1037 15.9139
r2859 1034 2764 96.0901
r2860 1034 1037 13.2616
r2861 1028 1571 0.277778
r2862 1028 1029 15.9139
r2863 1026 2532 96.0901
r2864 1026 1029 13.2616
r2865 1020 1570 0.277778
r2866 1020 1021 15.9139
r2867 1018 2331 96.0901
r2868 1018 1021 13.2616
r2869 1012 1569 0.277778
r2870 1012 1013 15.9139
r2871 1010 2757 96.0901
r2872 1010 1013 13.2616
r2873 1004 1568 0.277778
r2874 1004 1005 15.9139
r2875 1002 2322 96.0901
r2876 1002 1005 13.2616
r2877 996 1567 0.314815
r2878 996 1566 0.314815
r2879 996 997 15.9139
r2880 994 2525 96.0901
r2881 994 997 13.2616
r2882 988 1565 0.277778
r2883 988 989 15.9139
r2884 986 2749 96.0901
r2885 986 989 13.2616
r2886 980 1563 0.277778
r2887 980 981 15.9139
r2888 978 2743 96.0901
r2889 978 981 13.2616
r2890 972 1564 0.277778
r2891 972 973 15.9139
r2892 970 2313 96.0901
r2893 970 973 13.2616
r2894 964 1562 0.277778
r2895 964 965 15.9139
r2896 962 2515 96.0901
r2897 962 965 13.2616
r2898 956 1561 0.277778
r2899 956 957 15.9139
r2900 954 2306 96.0901
r2901 954 957 13.2616
r2902 948 1560 0.277778
r2903 948 949 15.9139
r2904 946 2509 96.0901
r2905 946 949 13.2616
r2906 940 1559 0.277778
r2907 940 941 15.9139
r2908 938 2734 96.0901
r2909 938 941 13.2616
r2910 932 1558 0.277778
r2911 932 933 15.9139
r2912 930 2964 96.0901
r2913 930 933 13.2616
r2914 924 1557 0.277778
r2915 924 925 15.9139
r2916 922 2298 96.0901
r2917 922 925 13.2616
r2918 916 1554 0.277778
r2919 916 917 15.9139
r2920 914 2958 96.0901
r2921 914 917 13.2616
r2922 908 1556 0.277778
r2923 908 909 15.9139
r2924 906 2725 96.0901
r2925 906 909 13.2616
r2926 900 1555 0.277778
r2927 900 901 15.9139
r2928 898 2501 96.0901
r2929 898 901 13.2616
r2930 892 1552 0.277778
r2931 892 893 15.9139
r2932 890 2718 96.0901
r2933 890 893 13.2616
r2934 884 1553 0.277778
r2935 884 885 15.9139
r2936 882 2288 96.0901
r2937 882 885 13.2616
r2938 876 1551 0.277778
r2939 876 877 15.9139
r2940 874 2494 96.0901
r2941 874 877 13.2616
r2942 868 1550 0.277778
r2943 868 869 15.9139
r2944 866 2948 96.0901
r2945 866 869 13.2616
r2946 860 1549 0.314815
r2947 860 1548 0.314815
r2948 860 861 15.9139
r2949 858 2281 96.0901
r2950 858 861 13.2616
r2951 852 1545 0.277778
r2952 852 853 15.9139
r2953 850 2944 96.0901
r2954 850 853 13.2616
r2955 844 1547 0.277778
r2956 844 845 15.9139
r2957 842 2710 96.0901
r2958 842 845 13.2616
r2959 836 1546 0.277778
r2960 836 837 15.9139
r2961 834 2486 96.0901
r2962 834 837 13.2616
r2963 828 1544 0.277778
r2964 828 829 15.9139
r2965 826 2935 96.0901
r2966 826 829 13.2616
r2967 820 1543 0.277778
r2968 820 821 15.9139
r2969 818 2700 96.0901
r2970 818 821 13.2616
r2971 812 1542 0.277778
r2972 812 813 15.9139